! PBEh-3c def2/J RIJCOSX CPCM(Toluene) NormalSCF NormalOpt
%maxcore 1000
%base "1-hydroxy-9,10-anthraquinone_gs_opt"
%pal nprocs 16 end
*xyzfile 0 1 1-hydroxy-9,10-anthraquinone_xtb.xyz

$new_job
! PBE0 def2-TZVP def2/J RIJCOSX TIGHTSCF CPCM(Toluene)
%maxcore 1000
%base "1-hydroxy-9,10-anthraquinone_pbe0_solv_tddft"
%pal nprocs 16 end
%TDDFT nroots 5 tda False end
*xyzfile 0 1 1-hydroxy-9,10-anthraquinone_gs_opt.xyz
