! RKS def2-TZVP def2/J RIJCOSX TightSCF
%method method dft functional hyb_gga_xc_camh_b3lyp end
%maxcore 1000
%base "6-cyano-5-methoxy-12-methylindolo_23-a_carbazole_cam-b3lyp_nosolv_tddft"
%pal nprocs 16 end
%TDDFT nroots 5 tda False end
*xyzfile 0 1 6-cyano-5-methoxy-12-methylindolo_23-a_carbazole_gs_opt.xyz
