! PBEh-3c def2/J RIJCOSX CPCM(Ethylacetate) NormalSCF NormalOpt
%maxcore 1000
%base "4,3-dibromprodigiosin_gs_opt"
%pal nprocs 16 end
*xyzfile 0 1 4,3-dibromprodigiosin_xtb.xyz

$new_job
! PBE0 def2-TZVP def2/J RIJCOSX TIGHTSCF CPCM(Ethylacetate)
%maxcore 1000
%base "4,3-dibromprodigiosin_pbe0_solv_tddft"
%pal nprocs 16 end
%TDDFT nroots 5 tda False end
*xyzfile 0 1 4,3-dibromprodigiosin_gs_opt.xyz
