! PBEh-3c def2/J RIJCOSX CPCM(Water) NormalSCF NormalOpt
%maxcore 1000
%base "muscaflavin_gs_opt"
%pal nprocs 16 end
*xyzfile -2 1 muscaflavin_xtb.xyz

$new_job
! PBE0 ma-def2-TZVP def2/J RIJCOSX TIGHTSCF CPCM(Water)
%maxcore 1000
%base "muscaflavin_pbe0_solv_tddft"
%pal nprocs 16 end
%TDDFT nroots 5 tda False end
*xyzfile -2 1 muscaflavin_gs_opt.xyz
