! PBEh-3c def2/J RIJCOSX CPCM(CH2Cl2) NormalSCF NormalOpt
%maxcore 1000
%base "scleroderris_blue_gs_opt"
%pal nprocs 16 end
*xyzfile 0 1 scleroderris_blue_xtb.xyz

$new_job
! PBE0 def2-TZVP def2/J RIJCOSX TIGHTSCF CPCM(CH2Cl2)
%maxcore 1000
%base "scleroderris_blue_pbe0_solv_tddft"
%pal nprocs 16 end
%TDDFT nroots 5 tda False end
*xyzfile 0 1 scleroderris_blue_gs_opt.xyz
